Version 4
SHEET 1 1836 680
WIRE 272 32 256 32
WIRE 272 80 256 80
WIRE 144 112 -32 112
FLAG 144 208 0
FLAG -32 192 0
FLAG 208 16 0
FLAG 208 224 0
SYMBOL Winding 224 112 R0
SYMATTR Value2 N={N1}
SYMATTR InstName U1
SYMBOL current -32 192 R180
WINDOW 0 24 80 Left 2
WINDOW 3 24 0 Left 2
WINDOW 123 0 0 Left 2
WINDOW 39 0 0 Left 2
SYMATTR InstName I1
SYMATTR Value PWL(0 1 1m 0 2m -0.5)
SYMBOL CORE 224 32 R0
SYMATTR InstName U2
TEXT 328 200 Left 2 !.tran 2m
TEXT 328 16 Left 2 !.param  N1=100
TEXT 328 80 Left 2 !.option  plotwinsize=0
TEXT 48 -80 Left 4 ;Bulk magnetization curve (russian steel)
TEXT 88 -144 Left 2 ;Scheme By Bordodynov
