Version 4.1
SHEET 1 1656 680
TEXT -88 64 Left 2 ;Operational Amplifiler\n (Op-Amp)\nIntegrator\nGain:\nDC Voltage Gain AV0 = -R2/R1\nAC Voltage Gain Av = \n(-R2/R1)*(1/(1+2*pi*f*C*R2)\nCorner Frequency f0 = 1/(2*pi*C*R2)
