Version 4
SHEET 1 1836 680
WIRE 288 32 256 32
WIRE 288 80 256 80
WIRE 96 112 48 112
WIRE 144 112 96 112
FLAG 144 208 0
FLAG 48 192 0
FLAG 208 16 0
FLAG 208 224 0
FLAG 288 32 H
FLAG 288 80 B
FLAG 96 176 0
SYMBOL current 48 192 R180
WINDOW 0 24 80 Left 2
WINDOW 3 -214 -81 Left 2
WINDOW 123 0 0 Left 2
WINDOW 39 0 0 Left 2
SYMATTR InstName I1
SYMATTR Value SINE(0 5m  5k 0 -500)
SYMBOL CoreChan 224 32 R0
SYMATTR SpiceLine Hc=18 Br=0.1 BS=0.4
SYMATTR InstName U2
SYMBOL Winding 224 112 R0
SYMATTR Value2 N={N1}
SYMATTR InstName U1
SYMBOL cap 80 112 R0
SYMATTR InstName C1
SYMATTR Value 20p
SYMBOL ZZZ\\TRANSFORMerAB\\core_H_B 592 176 R0
SYMATTR InstName U4
TEXT 272 160 Left 2 !.tran 5m uic
TEXT 328 16 Left 2 !.param  N1=100
TEXT 328 80 Left 2 !.option  plotwinsize=0
TEXT 304 -72 Left 2 !.param Area1=24u len1=32m
TEXT -8 304 Left 2 ;SINE(0 5m  5k 0 -500)
